/*---------------------------------------------------------------------------*\
 ####                 ####     #   #             |
 #                    #  #     ##  #             | FoamPython
 ##  #### ####  ##### #### # # #   #### #### ### | v1.0
 #   #  # #  #  # # # #     #  # # #  # #  # # # |
 #   #### ##### # # # #    #    #  #  # #### # # |    
\*---------------------------------------------------------------------------*/
FoamFile
{
    version     2.0;
    format      ascii;
    class       dictionary;
    object      controlDict;
}
// * * * * * * * * * * * * * * * * * * * * * * * * * * * * * * * * * * * * * //

<<<<<<< HEAD
application     laplacianFoam;
=======
// NOTE: controlDict is needed for blockMesh or other utilities
>>>>>>> 232b4913096958141af633dad33808f9d2282eb7

application     xyz;

deltaT          123;

writeInterval   123;


// ************************************************************************* //
